<connections>
	<connection from="4to1" to="1to2" fromLane="0" toLane="0" />
	<connection from="4to1" to="1to2" fromLane="1" toLane="1" />
	<connection from="4to1" to="1to2" fromLane="2" toLane="2" />

	<connection from="2to1" to="1to4" fromLane="0" toLane="0" />
	<connection from="2to1" to="1to4" fromLane="1" toLane="1" />
	<connection from="2to1" to="1to4" fromLane="2" toLane="2" />

	<connection from="3to1" to="1to5" fromLane="0" toLane="0" />
	<connection from="3to1" to="1to5" fromLane="1" toLane="1" />
	<connection from="3to1" to="1to5" fromLane="2" toLane="2" />

	<connection from="5to1" to="1to3" fromLane="0" toLane="0" />
	<connection from="5to1" to="1to3" fromLane="1" toLane="1" />
	<connection from="5to1" to="1to3" fromLane="2" toLane="2" />

</connections>